001
     RDKit          3D

 20 19  0  0  0  0  0  0  0  0999 V2000
    1.7594    0.5089    0.8933 C   0  0  0  0  0  0  0  0  0  0  0  0
    3.1636    0.3534    0.3167 C   0  0  0  0  0  0  0  0  0  0  0  0
    0.7046   -0.0791   -0.0510 C   0  0  0  0  0  0  0  0  0  0  0  0
   -0.7046    0.0791    0.5317 C   0  0  0  0  0  0  0  0  0  0  0  0
   -1.7594   -0.5089   -0.4126 C   0  0  0  0  0  0  0  0  0  0  0  0
   -3.1636   -0.3534    0.1640 C   0  0  0  0  0  0  0  0  0  0  0  0
    1.5557    1.5898    1.0567 H   0  0  0  0  0  0  0  0  0  0  0  0
    1.7147   -0.0103    1.8755 H   0  0  0  0  0  0  0  0  0  0  0  0
    3.4026   -0.7211    0.1672 H   0  0  0  0  0  0  0  0  0  0  0  0
    3.9047    0.7873    1.0206 H   0  0  0  0  0  0  0  0  0  0  0  0
    3.2429    0.8858   -0.6551 H   0  0  0  0  0  0  0  0  0  0  0  0
    0.7578    0.4425   -1.0322 H   0  0  0  0  0  0  0  0  0  0  0  0
    0.9169   -1.1591   -0.2126 H   0  0  0  0  0  0  0  0  0  0  0  0
   -0.9169    1.1591    0.6933 H   0  0  0  0  0  0  0  0  0  0  0  0
   -0.7578   -0.4425    1.5129 H   0  0  0  0  0  0  0  0  0  0  0  0
   -1.7147    0.0103   -1.3948 H   0  0  0  0  0  0  0  0  0  0  0  0
   -1.5557   -1.5898   -0.5760 H   0  0  0  0  0  0  0  0  0  0  0  0
   -3.2429   -0.8858    1.1358 H   0  0  0  0  0  0  0  0  0  0  0  0
   -3.9047   -0.7873   -0.5399 H   0  0  0  0  0  0  0  0  0  0  0  0
   -3.4026    0.7211    0.3135 H   0  0  0  0  0  0  0  0  0  0  0  0
  1  2  1  0
  1  3  1  0
  3  4  1  0
  4  5  1  0
  5  6  1  0
  1  7  1  0
  1  8  1  0
  2  9  1  0
  2 10  1  0
  2 11  1  0
  3 12  1  0
  3 13  1  0
  4 14  1  0
  4 15  1  0
  5 16  1  0
  5 17  1  0
  6 18  1  0
  6 19  1  0
  6 20  1  0
M  END
$$$$
