003
     RDKit          3D

 26 25  0  0  0  0  0  0  0  0999 V2000
    3.8371    0.5698    0.1326 C   0  0  0  0  0  0  0  0  0  0  0  0
    3.2236   -0.7642   -0.2920 C   0  0  0  0  0  0  0  0  0  0  0  0
    1.8675   -1.0349    0.3775 C   0  0  0  0  0  0  0  0  0  0  0  0
    0.7538   -0.1208   -0.1545 C   0  0  0  0  0  0  0  0  0  0  0  0
   -0.6042   -0.5035    0.4464 C   0  0  0  0  0  0  0  0  0  0  0  0
   -1.7162    0.4142   -0.0756 C   0  0  0  0  0  0  0  0  0  0  0  0
   -3.0734    0.0301    0.5249 C   0  0  0  0  0  0  0  0  0  0  0  0
   -4.1827    0.9414    0.0080 C   0  0  0  0  0  0  0  0  0  0  0  0
    3.2364    1.4195   -0.2525 H   0  0  0  0  0  0  0  0  0  0  0  0
    3.9025    0.6333    1.2396 H   0  0  0  0  0  0  0  0  0  0  0  0
    4.8618    0.6542   -0.2867 H   0  0  0  0  0  0  0  0  0  0  0  0
    3.9253   -1.5768   -0.0037 H   0  0  0  0  0  0  0  0  0  0  0  0
    3.1168   -0.7902   -1.3983 H   0  0  0  0  0  0  0  0  0  0  0  0
    1.5912   -2.0930    0.1752 H   0  0  0  0  0  0  0  0  0  0  0  0
    1.9614   -0.9161    1.4794 H   0  0  0  0  0  0  0  0  0  0  0  0
    0.7019   -0.2071   -1.2623 H   0  0  0  0  0  0  0  0  0  0  0  0
    0.9788    0.9346    0.1095 H   0  0  0  0  0  0  0  0  0  0  0  0
   -0.8418   -1.5568    0.1788 H   0  0  0  0  0  0  0  0  0  0  0  0
   -0.5512   -0.4236    1.5547 H   0  0  0  0  0  0  0  0  0  0  0  0
   -1.7688    0.3349   -1.1840 H   0  0  0  0  0  0  0  0  0  0  0  0
   -1.4804    1.4677    0.1928 H   0  0  0  0  0  0  0  0  0  0  0  0
   -3.0294    0.1105    1.6331 H   0  0  0  0  0  0  0  0  0  0  0  0
   -3.3179   -1.0211    0.2575 H   0  0  0  0  0  0  0  0  0  0  0  0
   -4.2649    0.8608   -1.0969 H   0  0  0  0  0  0  0  0  0  0  0  0
   -5.1517    0.6401    0.4590 H   0  0  0  0  0  0  0  0  0  0  0  0
   -3.9753    1.9971    0.2846 H   0  0  0  0  0  0  0  0  0  0  0  0
  1  2  1  0
  2  3  1  0
  3  4  1  0
  4  5  1  0
  5  6  1  0
  6  7  1  0
  7  8  1  0
  1  9  1  0
  1 10  1  0
  1 11  1  0
  2 12  1  0
  2 13  1  0
  3 14  1  0
  3 15  1  0
  4 16  1  0
  4 17  1  0
  5 18  1  0
  5 19  1  0
  6 20  1  0
  6 21  1  0
  7 22  1  0
  7 23  1  0
  8 24  1  0
  8 25  1  0
  8 26  1  0
M  END
$$$$
